
     RDKit          3D

 30 31  0  0  0  0  0  0  0  0999 V2000
    1.7670   -7.7110   11.8770 N   0  0  0  0  0  0  0  0  0  0  0  0
   -4.8760  -12.9160   15.5380 F   0  0  0  0  0  0  0  0  0  0  0  0
   -5.1180  -11.7470   22.1390 C   0  0  0  0  0  0  0  0  0  0  0  0
   -4.0360  -11.9940   17.5730 C   0  0  0  0  0  0  0  0  0  0  0  0
   -0.9550   -9.1870   13.3690 C   0  0  0  0  0  0  0  0  0  0  0  0
   -2.0340  -10.7140   16.1190 C   0  0  0  0  0  0  0  0  0  0  0  0
   -3.9870  -12.2540   16.1900 C   0  0  0  0  0  0  0  0  0  0  0  0
   -4.5500  -11.2130   23.2160 C   0  0  0  0  0  0  0  0  0  0  0  0
   -2.8800  -11.5560   15.4540 C   0  0  0  0  0  0  0  0  0  0  0  0
   -0.9940  -11.2080   13.6680 O   0  0  0  0  0  0  0  0  0  0  0  0
   -1.2510   -9.8890   22.0220 C   0  0  0  0  0  0  0  0  0  0  0  0
   -3.3390  -10.6340   23.2160 C   0  0  0  0  0  0  0  0  0  0  0  0
   -3.3930  -10.9950   20.8140 C   0  0  0  0  0  0  0  0  0  0  0  0
   -0.4890  -10.8100   21.2100 F   0  0  0  0  0  0  0  0  0  0  0  0
   -4.8600  -12.7760   18.2590 F   0  0  0  0  0  0  0  0  0  0  0  0
   -6.2680  -12.4040   22.0520 N   0  0  0  0  0  0  0  0  0  0  0  0
    2.8110   -6.9610   12.4340 C   0  0  0  0  0  0  0  0  0  0  0  0
   -3.1630  -11.1070   18.2500 C   0  0  0  0  0  0  0  0  0  0  0  0
    0.1670   -6.9570   13.4220 O   0  0  0  0  0  0  0  0  0  0  0  0
   -0.8540  -10.1350   14.4240 C   0  0  0  0  0  0  0  0  0  0  0  0
    2.1030   -8.6970   10.7850 C   0  0  0  0  0  0  0  0  0  0  0  0
   -1.1350   -9.9400   15.5020 N   0  0  0  0  0  0  0  0  0  0  0  0
   -2.6490  -10.6190   21.9900 C   0  0  0  0  0  0  0  0  0  0  0  0
    0.5520   -7.6980   12.7340 C   0  0  0  0  0  0  0  0  0  0  0  0
   -3.1190  -10.8020   19.5920 N   0  0  0  0  0  0  0  0  0  0  0  0
   -2.2090  -10.5200   17.5050 C   0  0  0  0  0  0  0  0  0  0  0  0
    1.4870   -8.6380    9.5940 O   0  0  0  0  0  0  0  0  0  0  0  0
   -4.5310  -11.7010   20.9620 C   0  0  0  0  0  0  0  0  0  0  0  0
    0.0210   -8.8650   12.9400 N   0  0  0  0  0  0  0  0  0  0  0  0
   -0.7620   -9.8010   23.2460 F   0  0  0  0  0  0  0  0  0  0  0  0
  1 17  1  0
  1 24  1  0
  2  7  1  0
  3  8  4  0
  4 18  4  0
  4 15  1  0
  5 20  1  0
  6 26  4  0
  7  4  4  0
  8 12  4  0
  9  6  4  0
  9  7  4  0
 10 20  2  0
 11 30  1  0
 13 28  4  0
 13 23  4  0
 14 11  1  0
 16  3  1  0
 18 25  1  0
 20 22  1  0
 21  1  1  0
 22  6  1  0
 23 11  1  0
 23 12  4  0
 24 29  1  0
 24 19  2  0
 25 13  1  0
 26 18  4  0
 27 21  1  0
 28  3  4  0
 29  5  1  0
M  END
$$$$
