
     RDKit          3D

 30 31  0  0  0  0  0  0  0  0999 V2000
    1.7670   -7.7110   11.8770 N   0  0  0  0  0  0  0  0  0  0  0  0
   -4.8760  -12.9160   15.5380 F   0  0  0  0  0  0  0  0  0  0  0  0
   -5.1180  -11.7470   22.1390 C   0  0  0  0  0  0  0  0  0  0  0  0
   -4.0360  -11.9940   17.5730 C   0  0  0  0  0  0  0  0  0  0  0  0
   -0.9550   -9.1870   13.3690 C   0  0  0  0  0  0  0  0  0  0  0  0
   -2.0340  -10.7140   16.1190 C   0  0  0  0  0  0  0  0  0  0  0  0
   -3.9870  -12.2540   16.1900 C   0  0  0  0  0  0  0  0  0  0  0  0
   -4.5500  -11.2130   23.2160 C   0  0  0  0  0  0  0  0  0  0  0  0
   -2.8800  -11.5560   15.4540 C   0  0  0  0  0  0  0  0  0  0  0  0
   -0.9940  -11.2080   13.6680 O   0  0  0  0  0  0  0  0  0  0  0  0
   -1.2510   -9.8890   22.0220 C   0  0  0  0  0  0  0  0  0  0  0  0
   -3.3390  -10.6340   23.2160 C   0  0  0  0  0  0  0  0  0  0  0  0
   -3.3930  -10.9950   20.8140 C   0  0  0  0  0  0  0  0  0  0  0  0
   -0.4890  -10.8100   21.2100 F   0  0  0  0  0  0  0  0  0  0  0  0
   -4.8600  -12.7750   18.2600 F   0  0  0  0  0  0  0  0  0  0  0  0
   -6.2680  -12.4040   22.0520 N   0  0  0  0  0  0  0  0  0  0  0  0
    2.8110   -6.9610   12.4340 C   0  0  0  0  0  0  0  0  0  0  0  0
   -3.1630  -11.1070   18.2500 C   0  0  0  0  0  0  0  0  0  0  0  0
    0.1670   -6.9570   13.4220 O   0  0  0  0  0  0  0  0  0  0  0  0
   -0.8540  -10.1350   14.4240 C   0  0  0  0  0  0  0  0  0  0  0  0
    2.1030   -8.6970   10.7850 C   0  0  0  0  0  0  0  0  0  0  0  0
   -1.1350   -9.9400   15.5020 N   0  0  0  0  0  0  0  0  0  0  0  0
   -2.6490  -10.6190   21.9900 C   0  0  0  0  0  0  0  0  0  0  0  0
    0.5520   -7.6980   12.7340 C   0  0  0  0  0  0  0  0  0  0  0  0
   -3.1180  -10.8020   19.5920 N   0  0  0  0  0  0  0  0  0  0  0  0
   -2.2090  -10.5200   17.5050 C   0  0  0  0  0  0  0  0  0  0  0  0
    1.4870   -8.6380    9.5940 O   0  0  0  0  0  0  0  0  0  0  0  0
   -4.5310  -11.7010   20.9620 C   0  0  0  0  0  0  0  0  0  0  0  0
    0.0210   -8.8650   12.9400 N   0  0  0  0  0  0  0  0  0  0  0  0
   -0.7620   -9.8010   23.2460 F   0  0  0  0  0  0  0  0  0  0  0  0
  1 17  1  0
  1 24  1  0
  2  7  1  0
  3  8  4  0
  4 18  4  0
  4 15  1  0
  5 20  1  0
  6 26  4  0
  7  4  4  0
  8 12  4  0
  9  6  4  0
  9  7  4  0
 10 20  2  0
 11 30  1  0
 13 28  4  0
 13 23  4  0
 14 11  1  0
 16  3  1  0
 18 25  1  0
 20 22  1  0
 21  1  1  0
 22  6  1  0
 23 11  1  0
 23 12  4  0
 24 29  1  0
 24 19  2  0
 25 13  1  0
 26 18  4  0
 27 21  1  0
 28  3  4  0
 29  5  1  0
M  END
$$$$

     RDKit          3D

  9  9  0  0  0  0  0  0  0  0999 V2000
   -0.8270   -8.5490   16.6070 C   0  0  0  0  0  0  0  0  0  0  0  0
   -2.6690  -10.8480   17.0840 C   0  0  0  0  0  0  0  0  0  0  0  0
   -2.5610  -10.9690   14.6840 C   0  0  0  0  0  0  0  0  0  0  0  0
   -2.1390  -10.4490   15.8420 C   0  0  0  0  0  0  0  0  0  0  0  0
   -3.4500  -11.9670   14.7020 N   0  0  0  0  0  0  0  0  0  0  0  0
   -2.4450  -10.2670   18.2510 C   0  0  0  0  0  0  0  0  0  0  0  0
   -1.2360   -9.4010   15.6720 O   0  0  0  0  0  0  0  0  0  0  0  0
   -3.5970  -11.9480   17.2030 C   0  0  0  0  0  0  0  0  0  0  0  0
   -3.9940  -12.4190   15.8870 C   0  0  0  0  0  0  0  0  0  0  0  0
  2  8  4  0
  2  6  1  0
  3  5  4  0
  3  4  4  0
  4  2  4  0
  5  9  4  0
  7  4  1  0
  7  1  1  0
  9  8  4  0
M  END
$$$$

     RDKit          3D

 33 37  0  0  0  0  0  0  0  0999 V2000
   -4.8450  -13.4150   19.0020 O   0  0  0  0  0  0  0  0  0  0  0  0
    0.7570   -8.6790   11.8270 C   0  0  0  0  0  0  0  0  0  0  0  0
   -2.3110  -11.2060   14.9150 N   0  0  0  0  0  0  0  0  0  0  0  0
   -2.8780   -8.9820   19.8190 C   0  0  0  0  0  0  0  0  0  0  0  0
    0.3810  -10.5880   23.5480 C   0  0  0  0  0  0  0  0  0  0  0  0
   -0.1820   -8.6100   14.2170 C   0  0  0  0  0  0  0  0  0  0  0  0
   -1.6180   -9.9610   22.1420 C   0  0  0  0  0  0  0  0  0  0  0  0
   -1.8100  -10.4500   15.8130 C   0  0  0  0  0  0  0  0  0  0  0  0
    1.4600   -7.5380   11.9570 C   0  0  0  0  0  0  0  0  0  0  0  0
   -3.5490  -12.0320   17.1220 C   0  0  0  0  0  0  0  0  0  0  0  0
   -0.6680   -8.2100   24.1270 C   0  0  0  0  0  0  0  0  0  0  0  0
   -1.2340   -8.7180   18.7960 C   0  0  0  0  0  0  0  0  0  0  0  0
   -4.2320  -12.4520   18.4630 C   0  0  0  0  0  0  0  0  0  0  0  0
   -4.8050  -13.1250   20.3950 C   0  0  0  0  0  0  0  0  0  0  0  0
   -4.1020  -12.5230   16.0180 C   0  0  0  0  0  0  0  0  0  0  0  0
    2.2430   -7.0220   10.9740 O   0  0  0  0  0  0  0  0  0  0  0  0
   -0.4110   -8.7320   17.5440 O   0  0  0  0  0  0  0  0  0  0  0  0
   -3.1310  -12.2100   15.0880 C   0  0  0  0  0  0  0  0  0  0  0  0
   -0.0360   -9.3260   12.9380 C   0  0  0  0  0  0  0  0  0  0  0  0
   -2.0220   -8.3040   24.8720 C   0  0  0  0  0  0  0  0  0  0  0  0
   -2.6810  -10.7360   17.4120 C   0  0  0  0  0  0  0  0  0  0  0  0
    0.5480   -7.2990   14.2430 C   0  0  0  0  0  0  0  0  0  0  0  0
    1.3030   -6.8000   13.1650 C   0  0  0  0  0  0  0  0  0  0  0  0
   -1.1670   -9.1860   15.5180 N   0  0  0  0  0  0  0  0  0  0  0  0
   -1.0290  -11.0660   21.2200 C   0  0  0  0  0  0  0  0  0  0  0  0
   -3.0020   -8.9170   23.8560 C   0  0  0  0  0  0  0  0  0  0  0  0
    3.5430   -6.4050   11.4350 C   0  0  0  0  0  0  0  0  0  0  0  0
   -4.0740  -11.2050   19.4460 C   0  0  0  0  0  0  0  0  0  0  0  0
   -3.5940   -8.7700   21.1020 C   0  0  0  0  0  0  0  0  0  0  0  0
   -2.5960   -8.9370   22.1700 C   0  0  0  0  0  0  0  0  0  0  0  0
   -0.8610   -8.0940   16.4520 C   0  0  0  0  0  0  0  0  0  0  0  0
   -3.0540  -10.3980   19.1900 C   0  0  0  0  0  0  0  0  0  0  0  0
   -0.7360   -9.6010   23.3350 C   0  0  0  0  0  0  0  0  0  0  0  0
  1 14  1  0
  2  9  4  0
  2 19  4  0
  3 18  1  0
  3  8  2  0
  4 29  1  0
  6 22  4  0
  6 24  1  0
  7 25  1  0
  7 30  1  0
  7 33  1  0
  8 21  1  0
  9 23  4  0
 10 21  2  0
 10 13  1  0
 11 20  1  0
 12  4  1  0
 13  1  1  0
 13 28  1  0
 15 10  1  0
 16 27  1  0
 16  9  1  0
 17 12  1  0
 18 15  1  0
 19  6  4  0
 21 32  1  0
 23 22  4  0
 24  8  1  0
 24 31  1  0
 26 20  1  0
 30 29  1  0
 30 26  1  0
 31 17  1  0
 32 28  2  0
 32  4  1  0
 33  5  1  0
 33 11  1  0
M  END
$$$$

     RDKit          3D

 20 22  0  0  0  0  0  0  0  0999 V2000
   -1.8370   -9.2070   18.2710 S   0  0  0  0  0  0  0  0  0  0  0  0
   -2.1960  -10.3830   16.1990 C   0  0  0  0  0  0  0  0  0  0  0  0
   -3.6190  -10.8330   19.2340 C   0  0  0  0  0  0  0  0  0  0  0  0
   -4.2920  -13.1490   15.7780 C   0  0  0  0  0  0  0  0  0  0  0  0
   -3.7720  -11.3180   17.9440 N   0  0  0  0  0  0  0  0  0  0  0  0
   -3.0820  -11.0450   16.7290 C   0  0  0  0  0  0  0  0  0  0  0  0
   -2.2690   -9.9490   21.0270 C   0  0  0  0  0  0  0  0  0  0  0  0
   -1.9580  -10.4590   23.8000 O   0  0  0  0  0  0  0  0  0  0  0  0
   -3.0180  -11.6810   14.2530 O   0  0  0  0  0  0  0  0  0  0  0  0
   -3.4040  -11.9400   15.6180 C   0  0  0  0  0  0  0  0  0  0  0  0
   -2.1880  -10.6810   14.0300 C   0  0  0  0  0  0  0  0  0  0  0  0
   -1.0080   -9.6120   21.7840 C   0  0  0  0  0  0  0  0  0  0  0  0
   -3.1480  -10.2890   23.1500 C   0  0  0  0  0  0  0  0  0  0  0  0
   -1.4360  -10.2130   15.2300 C   0  0  0  0  0  0  0  0  0  0  0  0
   -3.2460  -10.8480   21.8360 C   0  0  0  0  0  0  0  0  0  0  0  0
   -4.0810   -9.7620   23.6620 O   0  0  0  0  0  0  0  0  0  0  0  0
   -0.2240   -8.7610   21.7020 O   0  0  0  0  0  0  0  0  0  0  0  0
   -4.6460  -11.1470   20.7670 S   0  0  0  0  0  0  0  0  0  0  0  0
   -2.2630  -10.3470   19.4890 C   0  0  0  0  0  0  0  0  0  0  0  0
   -0.8220  -10.6850   22.9750 C   0  0  0  0  0  0  0  0  0  0  0  0
  2  6  2  0
  3  5  1  0
  3 19  1  0
  3 18  1  0
  6  5  1  0
  7 12  1  0
  7 15  1  0
  9 10  1  0
 10  4  1  0
 10  6  1  0
 11  9  1  0
 11 14  1  0
 12 20  1  0
 13 16  2  0
 13  8  1  0
 14  2  1  0
 15 18  1  0
 15 13  1  0
 17 12  2  0
 19  1  1  0
 19  7  1  0
 20  8  1  0
M  END
$$$$

     RDKit          3D

 22 25  0  0  0  0  0  0  0  0999 V2000
   -0.0810   -8.4950   14.6960 C   0  0  0  0  0  0  0  0  0  0  0  0
   -1.4910  -10.7720   20.6010 C   0  0  0  0  0  0  0  0  0  0  0  0
   -1.9920  -10.1490   16.1800 C   0  0  0  0  0  0  0  0  0  0  0  0
   -0.8400   -9.5720   14.0580 C   0  0  0  0  0  0  0  0  0  0  0  0
   -3.7160  -11.4340   19.9210 C   0  0  0  0  0  0  0  0  0  0  0  0
   -1.7210  -11.1750   21.8990 C   0  0  0  0  0  0  0  0  0  0  0  0
   -1.1760   -9.2520   16.8450 C   0  0  0  0  0  0  0  0  0  0  0  0
   -4.3630  -13.1370   16.0690 C   0  0  0  0  0  0  0  0  0  0  0  0
   -2.9710  -11.6060   22.1130 C   0  0  0  0  0  0  0  0  0  0  0  0
   -0.7090  -11.0210   22.9300 O   0  0  0  0  0  0  0  0  0  0  0  0
    0.0070   -7.1900   16.5150 O   0  0  0  0  0  0  0  0  0  0  0  0
   -3.3260  -11.6070   14.8020 C   0  0  0  0  0  0  0  0  0  0  0  0
   -2.8270  -11.0970   17.0470 C   0  0  0  0  0  0  0  0  0  0  0  0
   -1.7770  -10.2940   14.8020 C   0  0  0  0  0  0  0  0  0  0  0  0
   -5.5880  -12.1570   21.6550 Cl  0  0  0  0  0  0  0  0  0  0  0  0
   -2.2180  -10.4350   18.2820 N   0  0  0  0  0  0  0  0  0  0  0  0
   -0.4050   -8.2490   16.1030 C   0  0  0  0  0  0  0  0  0  0  0  0
   -2.4930  -10.9640   14.2100 N   0  0  0  0  0  0  0  0  0  0  0  0
   -1.4130   -9.3460   18.1450 C   0  0  0  0  0  0  0  0  0  0  0  0
   -2.5000  -10.8850   19.5710 C   0  0  0  0  0  0  0  0  0  0  0  0
   -3.5010  -11.8830   15.9380 C   0  0  0  0  0  0  0  0  0  0  0  0
   -3.9840  -11.7350   21.2960 C   0  0  0  0  0  0  0  0  0  0  0  0
  1 17  1  0
  2  6  4  0
  3  7  4  0
  3 13  4  0
  4  1  2  0
  4 14  1  0
  5 22  4  0
  6  9  4  0
  6 10  1  0
  7 19  4  0
 12 21  1  0
 13 16  4  0
 14  3  1  0
 16 20  1  0
 17 11  2  0
 17  7  1  0
 18 12  1  0
 18 14  2  0
 19 16  4  0
 20  5  4  0
 20  2  4  0
 21  8  1  0
 21 13  1  0
 22 15  1  0
 22  9  4  0
M  END
$$$$

     RDKit          3D

 17 17  0  0  0  0  0  0  0  0999 V2000
   -1.9670  -10.5560   16.4460 S   0  0  0  0  0  0  0  0  0  0  0  0
   -4.0750  -11.2880   20.3500 N   0  0  0  0  0  0  0  0  0  0  0  0
   -1.7930   -9.1370   16.1100 O   0  0  0  0  0  0  0  0  0  0  0  0
   -2.3570  -10.0680   19.1210 C   0  0  0  0  0  0  0  0  0  0  0  0
   -0.0690   -9.7230   23.3000 O   0  0  0  0  0  0  0  0  0  0  0  0
   -0.5890  -11.0960   16.5410 O   0  0  0  0  0  0  0  0  0  0  0  0
   -3.1250  -10.4140   20.2520 C   0  0  0  0  0  0  0  0  0  0  0  0
   -4.0970  -11.5230   15.1580 C   0  0  0  0  0  0  0  0  0  0  0  0
   -3.7560  -11.6510   18.0410 C   0  0  0  0  0  0  0  0  0  0  0  0
   -2.2290   -8.7580   21.9030 C   0  0  0  0  0  0  0  0  0  0  0  0
   -4.3840  -11.8880   19.2070 C   0  0  0  0  0  0  0  0  0  0  0  0
   -2.7120  -10.7360   17.9170 C   0  0  0  0  0  0  0  0  0  0  0  0
   -3.0230   -9.6260   21.4660 N   0  0  0  0  0  0  0  0  0  0  0  0
   -1.9820  -11.0690   13.9670 C   0  0  0  0  0  0  0  0  0  0  0  0
   -0.4580   -9.0440   21.7210 S   0  0  0  0  0  0  0  0  0  0  0  0
   -2.6700  -11.2850   15.2380 N   0  0  0  0  0  0  0  0  0  0  0  0
   -4.3800  -12.9580   15.6220 C   0  0  0  0  0  0  0  0  0  0  0  0
  1  6  2  0
  1 12  1  0
  3  1  2  0
  4  7  4  0
  7  2  4  0
  7 13  1  0
  8 16  1  0
  8 17  1  0
  9 11  4  0
 11  2  4  0
 12  9  4  0
 12  4  4  0
 13 10  1  0
 14 16  1  0
 15 10  1  0
 15  5  2  0
 16  1  1  0
M  END
$$$$

     RDKit          3D

 24 27  0  0  0  0  0  0  0  0999 V2000
   -1.6020  -10.4240   19.4000 O   0  0  0  0  0  0  0  0  0  0  0  0
   -2.9750  -10.1690   21.4430 C   0  0  0  0  0  0  0  0  0  0  0  0
   -0.6510   -9.1620   14.2410 C   0  0  0  0  0  0  0  0  0  0  0  0
   -1.6350  -10.1310   14.6840 C   0  0  0  0  0  0  0  0  0  0  0  0
   -3.2720  -12.1350   17.3390 C   0  0  0  0  0  0  0  0  0  0  0  0
   -0.2030   -8.2910   15.1360 C   0  0  0  0  0  0  0  0  0  0  0  0
   -2.8550  -11.3890   16.1200 C   0  0  0  0  0  0  0  0  0  0  0  0
   -3.7750  -13.5190   17.1640 C   0  0  0  0  0  0  0  0  0  0  0  0
   -1.4950   -9.2680   16.8670 N   0  0  0  0  0  0  0  0  0  0  0  0
   -0.3330   -9.8730   22.9550 C   0  0  0  0  0  0  0  0  0  0  0  0
   -0.6030   -8.3230   16.4340 C   0  0  0  0  0  0  0  0  0  0  0  0
   -0.2930   -9.2150   12.8850 N   0  0  0  0  0  0  0  0  0  0  0  0
   -1.6140  -10.3630   20.8220 C   0  0  0  0  0  0  0  0  0  0  0  0
   -3.4120  -11.4310   18.5120 C   0  0  0  0  0  0  0  0  0  0  0  0
   -0.3860  -10.4990   21.6190 C   0  0  0  0  0  0  0  0  0  0  0  0
   -2.5810  -10.2400   18.6630 O   0  0  0  0  0  0  0  0  0  0  0  0
   -4.4190  -10.5410   20.8940 S   0  0  0  0  0  0  0  0  0  0  0  0
   -4.9650  -11.2910   21.8790 O   0  0  0  0  0  0  0  0  0  0  0  0
   -2.3360  -11.0850   14.0800 N   0  0  0  0  0  0  0  0  0  0  0  0
   -1.6570   -9.1110   23.3050 C   0  0  0  0  0  0  0  0  0  0  0  0
   -3.1050  -11.7640   14.9270 N   0  0  0  0  0  0  0  0  0  0  0  0
   -1.9840  -10.2010   16.0120 C   0  0  0  0  0  0  0  0  0  0  0  0
   -2.9740   -9.5380   22.7990 C   0  0  0  0  0  0  0  0  0  0  0  0
   -4.1570  -11.6150   19.7060 C   0  0  0  0  0  0  0  0  0  0  0  0
  1 13  1  0
  2 23  2  0
  3  4  1  0
  3  6  2  0
  4 22  1  0
  5  8  1  0
  6 11  1  0
  7  5  1  0
 10 20  1  0
 11  9  1  0
 12  3  1  0
 13  2  1  0
 13 15  1  0
 14  5  1  0
 14 16  1  0
 14 24  1  0
 15 10  1  0
 16  1  1  0
 17  2  1  0
 17 18  2  0
 19  4  2  0
 19 21  1  0
 21  7  2  0
 22  7  1  0
 22  9  2  0
 23 20  1  0
 24 17  1  0
M  END
$$$$

     RDKit          3D

 39 45  0  0  0  0  0  0  0  0999 V2000
   -4.8440  -11.2680   22.9780 C   0  0  0  0  0  0  0  0  0  0  0  0
   -2.4560  -10.8570   19.6940 C   0  0  0  0  0  0  0  0  0  0  0  0
   -1.3810  -11.0440   22.5360 N   0  0  0  0  0  0  0  0  0  0  0  0
   -2.5570  -10.5930   17.3120 N   0  0  0  0  0  0  0  0  0  0  0  0
   -0.8260   -8.4320   15.6340 C   0  0  0  0  0  0  0  0  0  0  0  0
   -5.1370  -11.7270   19.5710 C   0  0  0  0  0  0  0  0  0  0  0  0
   -5.3810  -11.6000   21.8870 N   0  0  0  0  0  0  0  0  0  0  0  0
   -0.7440   -6.4270   21.3550 N   0  0  0  0  0  0  0  0  0  0  0  0
   -0.6010   -9.9240   22.6110 C   0  0  0  0  0  0  0  0  0  0  0  0
   -3.3570  -10.1170   24.5570 C   0  0  0  0  0  0  0  0  0  0  0  0
    0.0000   -7.3780   15.3030 C   0  0  0  0  0  0  0  0  0  0  0  0
   -4.5510  -11.4390   20.7950 C   0  0  0  0  0  0  0  0  0  0  0  0
   -3.6480  -10.6930   23.2050 C   0  0  0  0  0  0  0  0  0  0  0  0
    0.5520   -7.2420   14.0410 N   0  0  0  0  0  0  0  0  0  0  0  0
   -0.5080   -9.3730   13.3810 C   0  0  0  0  0  0  0  0  0  0  0  0
    0.8740   -8.1950   11.8550 N   0  0  0  0  0  0  0  0  0  0  0  0
   -1.9930  -10.5000   14.8720 C   0  0  0  0  0  0  0  0  0  0  0  0
   -0.9870  -11.1730   19.6520 C   0  0  0  0  0  0  0  0  0  0  0  0
   -1.1490   -9.4570   14.6900 C   0  0  0  0  0  0  0  0  0  0  0  0
    0.3580   -8.2640   13.0530 C   0  0  0  0  0  0  0  0  0  0  0  0
   -4.5110  -12.6180   15.5220 C   0  0  0  0  0  0  0  0  0  0  0  0
    1.3990   -5.9660   13.6200 Cl  0  0  0  0  0  0  0  0  0  0  0  0
   -3.1990  -11.0990   20.9210 C   0  0  0  0  0  0  0  0  0  0  0  0
   -3.1460  -11.0440   18.4830 N   0  0  0  0  0  0  0  0  0  0  0  0
   -3.2960  -13.2700   16.2220 C   0  0  0  0  0  0  0  0  0  0  0  0
   -1.9390   -7.7470   19.8280 C   0  0  0  0  0  0  0  0  0  0  0  0
   -0.7410   -8.8760   21.5820 C   0  0  0  0  0  0  0  0  0  0  0  0
    0.3610   -9.7530   23.6450 C   0  0  0  0  0  0  0  0  0  0  0  0
   -3.1890  -11.9890   15.2800 C   0  0  0  0  0  0  0  0  0  0  0  0
   -2.7130  -10.9100   22.1960 C   0  0  0  0  0  0  0  0  0  0  0  0
   -2.6640  -11.3340   14.0680 N   0  0  0  0  0  0  0  0  0  0  0  0
   -4.3650  -11.4710   18.5000 C   0  0  0  0  0  0  0  0  0  0  0  0
   -2.5960  -10.8750   16.0790 C   0  0  0  0  0  0  0  0  0  0  0  0
   -0.8240  -12.1700   23.3040 C   0  0  0  0  0  0  0  0  0  0  0  0
    0.8870   -8.5860   23.8320 C   0  0  0  0  0  0  0  0  0  0  0  0
   -1.6680   -8.9290   20.6650 O   0  0  0  0  0  0  0  0  0  0  0  0
   -0.1850   -7.7140   21.9300 C   0  0  0  0  0  0  0  0  0  0  0  0
   -1.7800   -6.4150   20.4370 C   0  0  0  0  0  0  0  0  0  0  0  0
    0.5170   -7.5260   23.0310 C   0  0  0  0  0  0  0  0  0  0  0  0
  1 13  1  0
  2 18  1  0
  2 23  1  0
  3 34  1  0
  4 24  1  0
  6 12  1  0
  7  1  1  0
  8 37  2  0
  9  3  1  0
  9 28  1  0
 11  5  1  0
 12  7  2  0
 13 10  1  0
 14 11  1  0
 15 19  1  0
 16 20  1  0
 17 33  1  0
 19 17  1  0
 19  5  2  0
 20 15  2  0
 20 14  1  0
 21 25  1  0
 22 14  1  0
 23 12  1  0
 23 30  1  0
 24 32  1  0
 24  2  1  0
 26 38  1  0
 26 36  1  0
 27 36  1  0
 27 37  1  0
 27  9  1  0
 28 35  2  0
 29 21  1  0
 29 33  1  0
 29 25  1  0
 30  3  1  0
 30 13  1  0
 31 17  2  0
 31 29  1  0
 32  6  2  0
 33  4  2  3
 37 39  1  0
 38  8  1  0
 39 35  1  0
M  END
$$$$

     RDKit          3D

 22 24  0  0  0  0  0  0  0  0999 V2000
   -4.3450  -12.6380   17.1540 C   0  0  0  0  0  0  0  0  0  0  0  0
   -1.7110   -7.0440   17.2010 C   0  0  0  0  0  0  0  0  0  0  0  0
   -2.0750  -10.8180   16.6210 C   0  0  0  0  0  0  0  0  0  0  0  0
   -3.6660  -10.4400   19.4840 C   0  0  0  0  0  0  0  0  0  0  0  0
   -4.2620  -11.8990   21.7620 C   0  0  0  0  0  0  0  0  0  0  0  0
   -2.0780  -10.5200   14.0440 C   0  0  0  0  0  0  0  0  0  0  0  0
   -3.4720  -11.7110   16.2080 C   0  0  0  0  0  0  0  0  0  0  0  0
   -3.0240  -10.0990   20.7100 C   0  0  0  0  0  0  0  0  0  0  0  0
   -0.9380   -8.8500   15.5950 N   0  0  0  0  0  0  0  0  0  0  0  0
   -2.0960   -9.5330   17.6510 N   0  0  0  0  0  0  0  0  0  0  0  0
   -1.0800   -8.5140   17.1460 C   0  0  0  0  0  0  0  0  0  0  0  0
   -2.7520  -11.6790   13.8220 C   0  0  0  0  0  0  0  0  0  0  0  0
   -4.9540  -12.1930   20.5550 C   0  0  0  0  0  0  0  0  0  0  0  0
   -3.2020  -12.4730   14.9600 N   0  0  0  0  0  0  0  0  0  0  0  0
   -4.6410  -11.4380   19.4180 C   0  0  0  0  0  0  0  0  0  0  0  0
   -3.1800  -10.9080   21.7650 C   0  0  0  0  0  0  0  0  0  0  0  0
   -3.4450   -9.4990   18.3440 C   0  0  0  0  0  0  0  0  0  0  0  0
   -2.4200  -10.8290   23.0590 C   0  0  0  0  0  0  0  0  0  0  0  0
   -3.5010  -11.1010   23.9720 O   0  0  0  0  0  0  0  0  0  0  0  0
   -1.1190  -11.7210   17.5940 C   0  0  0  0  0  0  0  0  0  0  0  0
   -0.0320   -8.5860   18.1330 O   0  0  0  0  0  0  0  0  0  0  0  0
   -1.6450  -10.0490   15.2880 C   0  0  0  0  0  0  0  0  0  0  0  0
  3 20  1  0
  3 10  1  0
  4  8  4  0
  5 16  4  0
  6 22  1  0
  7  3  1  0
  7  1  1  0
  8 16  4  0
  9 11  1  0
 10 17  1  0
 11  2  1  0
 11 10  1  0
 11 21  1  0
 12  6  2  0
 12 14  1  0
 13  5  4  0
 14  7  1  0
 15  4  4  0
 15 13  4  0
 16 18  1  0
 17  4  1  0
 18 19  1  0
 22  9  2  0
 22  3  1  0
M  END
$$$$

     RDKit          3D

 21 23  0  0  0  0  0  0  0  0999 V2000
   -3.6800  -11.1790   19.0490 N   0  0  0  0  0  0  0  0  0  0  0  0
   -3.1050  -11.2090   21.9240 C   0  0  0  0  0  0  0  0  0  0  0  0
   -1.4440   -9.2680   18.7710 O   0  0  0  0  0  0  0  0  0  0  0  0
   -2.8520  -11.9680   14.9480 N   0  0  0  0  0  0  0  0  0  0  0  0
   -3.7090  -12.7480   15.6810 C   0  0  0  0  0  0  0  0  0  0  0  0
   -4.3220  -11.6400   21.2120 C   0  0  0  0  0  0  0  0  0  0  0  0
   -1.8720  -11.0250   21.2380 C   0  0  0  0  0  0  0  0  0  0  0  0
   -2.3160  -10.7910   15.6320 C   0  0  0  0  0  0  0  0  0  0  0  0
   -3.0880  -10.9980   23.3120 C   0  0  0  0  0  0  0  0  0  0  0  0
    0.0130   -7.8970   16.8810 C   0  0  0  0  0  0  0  0  0  0  0  0
   -1.9410  -10.5730   23.9450 C   0  0  0  0  0  0  0  0  0  0  0  0
   -1.2780   -8.5790   16.5460 N   0  0  0  0  0  0  0  0  0  0  0  0
   -4.0470  -12.5170   16.9810 C   0  0  0  0  0  0  0  0  0  0  0  0
   -2.4940  -10.6190   17.0450 C   0  0  0  0  0  0  0  0  0  0  0  0
   -3.5960  -11.5170   17.7810 C   0  0  0  0  0  0  0  0  0  0  0  0
   -5.3090  -11.9860   21.9300 O   0  0  0  0  0  0  0  0  0  0  0  0
   -0.6860  -10.7470   21.9300 C   0  0  0  0  0  0  0  0  0  0  0  0
   -4.4990  -11.7110   19.8590 N   0  0  0  0  0  0  0  0  0  0  0  0
   -2.0410  -10.5480   14.2070 C   0  0  0  0  0  0  0  0  0  0  0  0
   -0.7730  -10.4870   23.2680 N   0  0  0  0  0  0  0  0  0  0  0  0
   -1.7450   -9.4740   17.5300 C   0  0  0  0  0  0  0  0  0  0  0  0
  1 18  2  3
  2  9  4  0
  4  8  1  0
  4  5  1  0
  5 13  1  0
  6  2  1  0
  6 16  2  0
  7  2  4  0
  7 17  4  0
  8 14  2  0
  9 11  4  0
 12 10  1  0
 12 21  1  0
 13 15  2  0
 14 21  1  0
 14 15  1  0
 15  1  1  0
 17 20  4  0
 18  6  1  0
 19  4  1  0
 19  8  1  0
 20 11  4  0
 21  3  2  0
M  END
$$$$

     RDKit          3D

 22 24  0  0  0  0  0  0  0  0999 V2000
   -2.4220  -10.7100   16.0760 C   0  0  0  0  0  0  0  0  0  0  0  0
   -1.7430   -9.6090   16.4720 C   0  0  0  0  0  0  0  0  0  0  0  0
   -0.9540   -8.8930   15.5560 C   0  0  0  0  0  0  0  0  0  0  0  0
   -4.6310  -11.7890   20.6980 C   0  0  0  0  0  0  0  0  0  0  0  0
   -1.6680  -10.0270   21.5210 N   0  0  0  0  0  0  0  0  0  0  0  0
   -4.5900  -11.7720   19.2380 C   0  0  0  0  0  0  0  0  0  0  0  0
   -2.4980  -10.7320   19.2900 C   0  0  0  0  0  0  0  0  0  0  0  0
   -3.4740  -11.2230   18.5750 C   0  0  0  0  0  0  0  0  0  0  0  0
   -2.4990  -10.8700   20.7220 C   0  0  0  0  0  0  0  0  0  0  0  0
   -1.4070  -10.2050   18.7880 O   0  0  0  0  0  0  0  0  0  0  0  0
    0.0720   -9.0940   22.6790 C   0  0  0  0  0  0  0  0  0  0  0  0
   -1.2960  -10.5090   13.9930 C   0  0  0  0  0  0  0  0  0  0  0  0
   -3.6260  -11.3300   21.4070 N   0  0  0  0  0  0  0  0  0  0  0  0
   -0.7820   -9.6310   23.6840 O   0  0  0  0  0  0  0  0  0  0  0  0
   -4.1030  -12.5920   16.4820 C   0  0  0  0  0  0  0  0  0  0  0  0
    0.3820   -8.2960   13.3010 Cl  0  0  0  0  0  0  0  0  0  0  0  0
   -2.1710  -11.1750   14.7930 N   0  0  0  0  0  0  0  0  0  0  0  0
   -3.4440  -11.2830   17.0410 C   0  0  0  0  0  0  0  0  0  0  0  0
   -1.8300  -10.2730   22.9270 C   0  0  0  0  0  0  0  0  0  0  0  0
   -3.4620  -13.1190   15.3910 O   0  0  0  0  0  0  0  0  0  0  0  0
   -0.7150   -9.3180   14.2740 C   0  0  0  0  0  0  0  0  0  0  0  0
   -0.2100   -9.7790   21.3450 C   0  0  0  0  0  0  0  0  0  0  0  0
  1  2  4  0
  1 18  1  0
  3  2  4  0
  4 13  4  0
  5 19  1  0
  6  4  4  0
  7  9  4  0
  8  6  4  0
  8  7  4  0
  9 13  4  0
  9  5  1  0
 10  7  1  0
 11 14  1  0
 12 21  4  0
 12 17  4  0
 16 21  1  0
 17  1  4  0
 18 15  1  0
 18  8  1  0
 19 14  1  0
 20 15  1  0
 21  3  4  0
 22  5  1  0
 22 11  1  0
M  END
$$$$

     RDKit          3D

 22 23  0  0  0  0  0  0  0  0999 V2000
   -2.8190  -10.8100   23.3390 O   0  0  0  0  0  0  0  0  0  0  0  0
   -2.8320  -11.1680   21.5780 C   0  0  0  0  0  0  0  0  0  0  0  0
   -1.5610  -10.6180   13.8790 O   0  0  0  0  0  0  0  0  0  0  0  0
    0.7830   -6.6820   16.2920 C   0  0  0  0  0  0  0  0  0  0  0  0
   -3.2340  -11.1220   15.4520 C   0  0  0  0  0  0  0  0  0  0  0  0
   -1.3990   -9.9020   15.9220 N   0  0  0  0  0  0  0  0  0  0  0  0
   -4.6090  -12.9330   15.2150 C   0  0  0  0  0  0  0  0  0  0  0  0
   -1.4880   -7.2850   16.8060 O   0  0  0  0  0  0  0  0  0  0  0  0
   -3.0390  -10.0170   22.1090 C   0  0  0  0  0  0  0  0  0  0  0  0
   -0.9640   -9.0060   24.2230 O   0  0  0  0  0  0  0  0  0  0  0  0
   -3.3690  -10.7620   16.9500 C   0  0  0  0  0  0  0  0  0  0  0  0
   -1.9100  -10.1660   17.2290 C   0  0  0  0  0  0  0  0  0  0  0  0
   -4.2050  -11.3750   19.4250 S   0  0  0  0  0  0  0  0  0  0  0  0
   -0.4090   -7.5620   16.3800 C   0  0  0  0  0  0  0  0  0  0  0  0
   -3.8140  -11.7950   17.9520 C   0  0  0  0  0  0  0  0  0  0  0  0
   -3.2320  -12.5170   15.1970 O   0  0  0  0  0  0  0  0  0  0  0  0
   -1.4390   -9.0280   23.3520 C   0  0  0  0  0  0  0  0  0  0  0  0
   -0.2650   -8.9670   15.7610 C   0  0  0  0  0  0  0  0  0  0  0  0
   -2.5110  -11.5320   20.3860 C   0  0  0  0  0  0  0  0  0  0  0  0
   -2.2730   -8.7870   22.3820 C   0  0  0  0  0  0  0  0  0  0  0  0
   -2.0010  -10.5180   14.9710 C   0  0  0  0  0  0  0  0  0  0  0  0
   -1.3570  -11.5320   21.2630 C   0  0  0  0  0  0  0  0  0  0  0  0
  2  9  1  0
  3 21  2  0
  4 14  1  0
  5 16  1  0
  5 11  1  0
  6 12  1  0
  9 20  1  0
  9  1  1  0
 11 12  1  0
 11 15  1  0
 14  8  2  0
 15 13  1  0
 16  7  1  0
 17 10  1  0
 18  6  1  0
 18 14  1  0
 19 13  1  0
 19 22  1  0
 19  2  1  0
 20 17  1  0
 21  5  1  0
 21  6  1  0
 22  2  1  0
M  END
$$$$

     RDKit          3D

 42 46  0  0  0  0  0  0  0  0999 V2000
   -3.7840  -11.4760   21.2820 C   0  0  0  0  0  0  0  0  0  0  0  0
   -1.0670   -6.5280   22.0780 O   0  0  0  0  0  0  0  0  0  0  0  0
   -1.8900   -9.6600   15.9700 C   0  0  0  0  0  0  0  0  0  0  0  0
    1.3020   -5.9140   13.9170 C   0  0  0  0  0  0  0  0  0  0  0  0
    0.8290   -5.2950   15.3200 C   0  0  0  0  0  0  0  0  0  0  0  0
   -2.6120  -10.2990   21.4600 C   0  0  0  0  0  0  0  0  0  0  0  0
   -3.7310  -12.1830   24.0550 O   0  0  0  0  0  0  0  0  0  0  0  0
    1.3020   -7.4290   13.8540 C   0  0  0  0  0  0  0  0  0  0  0  0
   -2.9790  -11.9050   15.9850 C   0  0  0  0  0  0  0  0  0  0  0  0
   -2.2340   -8.4910   20.1800 O   0  0  0  0  0  0  0  0  0  0  0  0
   -0.0270   -9.2060   10.6870 N   0  0  0  0  0  0  0  0  0  0  0  0
   -2.5930  -15.5150   13.4840 C   0  0  0  0  0  0  0  0  0  0  0  0
   -4.0210  -12.7200   16.4480 C   0  0  0  0  0  0  0  0  0  0  0  0
   -2.0670   -9.7080   14.5270 C   0  0  0  0  0  0  0  0  0  0  0  0
   -0.6960  -11.2910   22.9640 C   0  0  0  0  0  0  0  0  0  0  0  0
   -3.8960   -9.9090   23.8030 C   0  0  0  0  0  0  0  0  0  0  0  0
   -2.6570  -10.0400   23.0670 C   0  0  0  0  0  0  0  0  0  0  0  0
   -2.5020  -13.3240   14.1200 C   0  0  0  0  0  0  0  0  0  0  0  0
   -4.6870  -11.3160   23.6680 C   0  0  0  0  0  0  0  0  0  0  0  0
   -5.4270  -13.1190   22.0520 O   0  0  0  0  0  0  0  0  0  0  0  0
   -5.0260  -11.6880   22.1880 C   0  0  0  0  0  0  0  0  0  0  0  0
   -3.3090  -14.3900   14.7160 C   0  0  0  0  0  0  0  0  0  0  0  0
   -2.6750  -12.0610   14.6060 C   0  0  0  0  0  0  0  0  0  0  0  0
   -2.1190   -9.2120   18.9970 C   0  0  0  0  0  0  0  0  0  0  0  0
   -5.0530  -12.0350   17.3640 C   0  0  0  0  0  0  0  0  0  0  0  0
    0.2140   -8.8770   16.7890 O   0  0  0  0  0  0  0  0  0  0  0  0
   -1.1160   -8.5260   16.6600 C   0  0  0  0  0  0  0  0  0  0  0  0
   -0.3350   -5.9950   17.6190 C   0  0  0  0  0  0  0  0  0  0  0  0
   -0.3320   -8.0980   23.2820 O   0  0  0  0  0  0  0  0  0  0  0  0
   -2.3200  -10.5630   18.3510 C   0  0  0  0  0  0  0  0  0  0  0  0
   -1.4540  -10.4730   23.5610 C   0  0  0  0  0  0  0  0  0  0  0  0
   -1.1240   -7.7770   22.4030 C   0  0  0  0  0  0  0  0  0  0  0  0
   -1.5280   -8.8650   21.3350 C   0  0  0  0  0  0  0  0  0  0  0  0
    0.9460   -8.4460   11.5870 C   0  0  0  0  0  0  0  0  0  0  0  0
   -0.1430   -6.2880   16.0750 C   0  0  0  0  0  0  0  0  0  0  0  0
   -3.7290   -8.9540   22.9440 O   0  0  0  0  0  0  0  0  0  0  0  0
   -0.9810   -6.9970   18.6330 C   0  0  0  0  0  0  0  0  0  0  0  0
   -4.2540  -13.9220   15.7010 C   0  0  0  0  0  0  0  0  0  0  0  0
    0.3310   -7.8860   12.7790 N   0  0  0  0  0  0  0  0  0  0  0  0
   -2.2970  -10.8450   16.7230 C   0  0  0  0  0  0  0  0  0  0  0  0
   -2.4080  -10.8720   13.8110 C   0  0  0  0  0  0  0  0  0  0  0  0
   -1.8330   -8.0590   17.9950 C   0  0  0  0  0  0  0  0  0  0  0  0
  1  6  1  0
  1 21  1  0
  2 32  2  0
  3 27  1  0
  3 40  4  0
  4  5  1  0
  5 35  1  0
  6 33  1  0
  6 17  1  0
  8  4  1  0
  9 13  4  0
  9 40  4  0
 11 34  1  0
 12 22  1  0
 13 25  1  0
 14  3  4  0
 15 31  2  0
 16 36  1  0
 17 31  1  0
 17 16  1  0
 18 23  4  0
 18 22  4  0
 19 16  1  0
 19  7  1  0
 21 20  1  0
 21 19  1  0
 22 38  4  0
 23  9  4  0
 24 10  1  0
 27 26  1  0
 27 42  1  0
 28 37  1  0
 30 24  2  0
 32 29  1  0
 33 10  1  0
 33 32  1  0
 34 39  1  0
 35 28  2  3
 36 17  1  0
 38 13  4  0
 39  8  1  0
 40 30  1  0
 41 14  4  0
 41 23  4  0
 42 37  1  0
 42 24  1  0
M  END
$$$$

     RDKit          3D

 16 18  0  0  0  0  0  0  0  0999 V2000
   -3.9820  -12.3800   16.5670 C   0  0  0  0  0  0  0  0  0  0  0  0
   -2.9180  -12.1950   15.4080 S   0  0  0  0  0  0  0  0  0  0  0  0
   -4.7260  -11.8480   19.0940 C   0  0  0  0  0  0  0  0  0  0  0  0
   -1.8060  -10.8930   15.6020 C   0  0  0  0  0  0  0  0  0  0  0  0
   -1.0730  -10.0970   19.9290 F   0  0  0  0  0  0  0  0  0  0  0  0
   -4.3380  -11.5710   20.3200 C   0  0  0  0  0  0  0  0  0  0  0  0
   -3.0690  -11.1230   20.6620 C   0  0  0  0  0  0  0  0  0  0  0  0
   -1.8410  -10.2160   17.0720 C   0  0  0  0  0  0  0  0  0  0  0  0
   -2.1780   -9.3410   16.5320 O   0  0  0  0  0  0  0  0  0  0  0  0
   -2.2220  -10.6610   19.6190 C   0  0  0  0  0  0  0  0  0  0  0  0
   -0.4720   -8.8720   15.3600 N   0  0  0  0  0  0  0  0  0  0  0  0
   -1.1540   -8.3430   16.4090 N   0  0  0  0  0  0  0  0  0  0  0  0
   -0.9080  -10.0140   14.8070 C   0  0  0  0  0  0  0  0  0  0  0  0
   -3.7220  -11.6120   17.9290 C   0  0  0  0  0  0  0  0  0  0  0  0
   -0.4870  -10.3550   13.5990 N   0  0  0  0  0  0  0  0  0  0  0  0
   -2.5510  -10.8220   18.2660 C   0  0  0  0  0  0  0  0  0  0  0  0
  1 14  1  0
  2  4  1  0
  2  1  1  0
  3  6  4  0
  4 13  1  0
  4  8  1  0
  6  7  4  0
  8  9  1  0
  8 16  1  0
 10  5  1  0
 10  7  4  0
 11 12  1  0
 12  9  1  0
 13 11  2  0
 14 16  4  0
 14  3  4  0
 15 13  1  0
 16 10  4  0
M  END
$$$$

     RDKit          3D

 32 37  0  0  0  0  0  0  0  0999 V2000
   -0.4740  -11.2750   23.3940 F   0  0  0  0  0  0  0  0  0  0  0  0
   -2.3410  -10.2600   20.2150 N   0  0  0  0  0  0  0  0  0  0  0  0
   -1.0780   -9.1330   15.5990 C   0  0  0  0  0  0  0  0  0  0  0  0
   -0.3270   -8.3440   22.5290 F   0  0  0  0  0  0  0  0  0  0  0  0
   -3.8890  -11.7620   19.0690 C   0  0  0  0  0  0  0  0  0  0  0  0
   -3.7260  -12.6840   15.4460 C   0  0  0  0  0  0  0  0  0  0  0  0
   -1.5920  -10.0410   14.6830 C   0  0  0  0  0  0  0  0  0  0  0  0
    0.5870   -7.1630   15.3660 N   0  0  0  0  0  0  0  0  0  0  0  0
   -1.5570   -8.0220   20.2930 C   0  0  0  0  0  0  0  0  0  0  0  0
   -3.0590  -11.9510   14.6140 N   0  0  0  0  0  0  0  0  0  0  0  0
   -2.7380  -11.0940   16.6000 C   0  0  0  0  0  0  0  0  0  0  0  0
    0.8150   -9.9420   21.4850 F   0  0  0  0  0  0  0  0  0  0  0  0
   -3.5840  -11.4320   22.1120 C   0  0  0  0  0  0  0  0  0  0  0  0
   -5.0360  -11.0990   22.5040 C   0  0  0  0  0  0  0  0  0  0  0  0
   -5.7900  -12.1200   21.8180 O   0  0  0  0  0  0  0  0  0  0  0  0
   -1.1610  -10.4960   22.6290 C   0  0  0  0  0  0  0  0  0  0  0  0
   -3.0150   -9.8010   23.9420 O   0  0  0  0  0  0  0  0  0  0  0  0
    1.1700   -7.4230   13.2240 N   0  0  0  0  0  0  0  0  0  0  0  0
    1.3580   -6.6650   14.3360 C   0  0  0  0  0  0  0  0  0  0  0  0
   -2.3400  -10.3050   17.7550 C   0  0  0  0  0  0  0  0  0  0  0  0
   -1.2740  -10.1450   13.3090 C   0  0  0  0  0  0  0  0  0  0  0  0
   -0.3620   -9.5720   21.9080 C   0  0  0  0  0  0  0  0  0  0  0  0
   -4.2190  -12.4600   17.9390 C   0  0  0  0  0  0  0  0  0  0  0  0
    0.2890   -8.3950   13.6340 N   0  0  0  0  0  0  0  0  0  0  0  0
   -0.1430   -8.2650   14.9720 C   0  0  0  0  0  0  0  0  0  0  0  0
   -3.2890  -10.4020   21.2270 C   0  0  0  0  0  0  0  0  0  0  0  0
   -1.3020   -9.3420   20.9290 C   0  0  0  0  0  0  0  0  0  0  0  0
   -3.6070  -12.1550   16.7280 C   0  0  0  0  0  0  0  0  0  0  0  0
   -2.8680  -10.7210   18.9850 C   0  0  0  0  0  0  0  0  0  0  0  0
   -2.4940  -10.9920   15.2540 N   0  0  0  0  0  0  0  0  0  0  0  0
   -2.5970  -10.4270   22.6740 C   0  0  0  0  0  0  0  0  0  0  0  0
   -0.2810   -9.3140   12.7830 C   0  0  0  0  0  0  0  0  0  0  0  0
  2 27  1  0
  6 28  4  0
  7 30  1  0
  7  3  4  0
 10 30  4  0
 10  6  4  0
 11 28  4  0
 11 20  4  0
 12 22  1  0
 13 14  1  0
 13 31  1  0
 15 14  1  0
 16 31  1  0
 16  1  1  0
 18 24  4  0
 18 19  4  0
 19  8  4  0
 20 29  4  0
 21  7  4  0
 22  4  1  0
 22 16  1  0
 23  5  4  0
 24 25  4  0
 25  8  4  0
 25  3  4  0
 26  2  1  0
 26 13  1  0
 26 31  1  0
 27  9  1  0
 27 22  1  0
 28 23  4  0
 29  5  4  0
 29  2  1  0
 30 11  4  0
 31 17  1  0
 32 21  4  0
 32 24  4  0
M  END
$$$$

     RDKit          3D

 34 39  0  0  0  0  0  0  0  0999 V2000
    1.1180   -8.4200   10.6240 C   0  0  0  0  0  0  0  0  0  0  0  0
   -3.6000  -10.5980   19.5880 N   0  0  0  0  0  0  0  0  0  0  0  0
   -3.8210  -10.9650   23.9720 C   0  0  0  0  0  0  0  0  0  0  0  0
   -4.5040  -11.7730   21.6240 C   0  0  0  0  0  0  0  0  0  0  0  0
   -2.9180  -11.6630   14.9970 N   0  0  0  0  0  0  0  0  0  0  0  0
    2.4700   -6.5530   11.5230 C   0  0  0  0  0  0  0  0  0  0  0  0
   -2.6850  -10.9490   16.1760 C   0  0  0  0  0  0  0  0  0  0  0  0
   -3.1310  -10.4960   18.2910 C   0  0  0  0  0  0  0  0  0  0  0  0
   -1.3520   -8.6180   23.0280 C   0  0  0  0  0  0  0  0  0  0  0  0
   -4.5600  -12.1000   24.5540 C   0  0  0  0  0  0  0  0  0  0  0  0
   -1.6550   -9.7060   22.2570 N   0  0  0  0  0  0  0  0  0  0  0  0
   -0.6350  -10.5110   21.9870 C   0  0  0  0  0  0  0  0  0  0  0  0
    1.6000   -9.4430    9.8200 O   0  0  0  0  0  0  0  0  0  0  0  0
   -1.7960   -9.4530   17.8900 S   0  0  0  0  0  0  0  0  0  0  0  0
   -4.3340  -12.3780   16.7830 C   0  0  0  0  0  0  0  0  0  0  0  0
   -4.0550  -12.5360   15.3610 C   0  0  0  0  0  0  0  0  0  0  0  0
    0.2970   -9.8500   22.4540 C   0  0  0  0  0  0  0  0  0  0  0  0
   -5.1870  -12.9170   22.2470 C   0  0  0  0  0  0  0  0  0  0  0  0
   -1.8720  -11.0640   14.2720 N   0  0  0  0  0  0  0  0  0  0  0  0
   -1.7260   -9.9960   16.2430 N   0  0  0  0  0  0  0  0  0  0  0  0
    0.8630   -8.1030   11.9810 C   0  0  0  0  0  0  0  0  0  0  0  0
   -1.4150  -10.1230   14.8510 C   0  0  0  0  0  0  0  0  0  0  0  0
   -5.0900  -12.2980   19.4130 O   0  0  0  0  0  0  0  0  0  0  0  0
   -4.4340  -11.5680   20.1570 C   0  0  0  0  0  0  0  0  0  0  0  0
    0.1160   -8.7270   23.0540 N   0  0  0  0  0  0  0  0  0  0  0  0
   -3.0260  -10.0310   21.7220 C   0  0  0  0  0  0  0  0  0  0  0  0
    0.7010   -6.3190   13.4790 C   0  0  0  0  0  0  0  0  0  0  0  0
   -4.4790  -13.2090   23.5660 C   0  0  0  0  0  0  0  0  0  0  0  0
   -3.8450  -10.9790   22.4400 C   0  0  0  0  0  0  0  0  0  0  0  0
   -3.1010   -9.8030   20.4010 N   0  0  0  0  0  0  0  0  0  0  0  0
    1.5300   -7.0500   12.6000 N   0  0  0  0  0  0  0  0  0  0  0  0
   -3.4890  -11.3070   17.2380 C   0  0  0  0  0  0  0  0  0  0  0  0
    0.1040   -9.1380   12.8070 C   0  0  0  0  0  0  0  0  0  0  0  0
   -0.4240   -8.9690   14.3500 C   0  0  0  0  0  0  0  0  0  0  0  0
  2 24  4  0
  2 30  4  0
  3 10  1  0
  4 18  1  0
  4 29  4  0
  5 16  1  0
  5  7  1  0
  6 31  1  0
  7 20  1  0
  7 32  1  0
  8  2  1  0
  9 25  4  0
 11  9  4  0
 12 11  4  0
 12 17  4  0
 13  1  1  0
 14  8  1  0
 15 32  1  0
 16 15  2  0
 17 25  4  0
 18 28  1  0
 19 22  2  0
 19  5  1  0
 20 14  1  0
 21  1  1  0
 21 31  1  0
 21 33  1  0
 22 20  1  0
 23 24  2  0
 24  4  4  0
 26 11  1  0
 26 29  4  0
 28 10  1  0
 29  3  1  0
 30 26  4  0
 31 27  1  0
 32  8  2  0
 33 34  1  0
 34 22  1  0
M  END
$$$$
