
     RDKit          3D

 15 16  0  0  0  0  0  0  0  0999 V2000
   -2.8690  -10.7570   18.6910 N   0  0  0  0  0  0  0  0  0  0  0  0
   -2.4420  -10.5480   16.4120 C   0  0  0  0  0  0  0  0  0  0  0  0
   -3.7470  -12.3980   15.2220 N   0  0  0  0  0  0  0  0  0  0  0  0
   -2.3170  -10.6220   19.8440 C   0  0  0  0  0  0  0  0  0  0  0  0
   -2.3730   -9.1770   20.2900 C   0  0  0  0  0  0  0  0  0  0  0  0
   -2.2190  -11.0410   14.1050 N   0  0  0  0  0  0  0  0  0  0  0  0
   -0.2370   -9.6010   21.5350 C   0  0  0  0  0  0  0  0  0  0  0  0
   -4.0210  -10.9160   19.7110 O   0  0  0  0  0  0  0  0  0  0  0  0
   -1.1400   -8.2270   20.1120 C   0  0  0  0  0  0  0  0  0  0  0  0
   -4.3290  -12.8440   16.5500 C   0  0  0  0  0  0  0  0  0  0  0  0
   -4.0100  -12.0470   17.7080 C   0  0  0  0  0  0  0  0  0  0  0  0
   -2.8560  -11.3300   15.1850 C   0  0  0  0  0  0  0  0  0  0  0  0
   -1.9150  -11.4300   20.9630 C   0  0  0  0  0  0  0  0  0  0  0  0
   -0.5090   -9.9210   20.4200 C   0  0  0  0  0  0  0  0  0  0  0  0
   -3.5100  -10.7310   17.4770 C   0  0  0  0  0  0  0  0  0  0  0  0
  1  8  1  0
  1  4  1  0
  3 10  1  0
  4  5  1  0
  4 13  1  0
  6 12  1  0
  8  4  1  0
  9  5  1  0
  9 14  1  0
 10 11  1  0
 12  3  2  0
 12  2  1  0
 14  7  1  0
 15  2  1  0
 15 11  1  0
 15  1  1  0
M  END
$$$$

     RDKit          3D

 31 35  0  0  0  0  0  0  0  0999 V2000
   -2.1510   -6.8910   19.5090 C   0  0  0  0  0  0  0  0  0  0  0  0
   -0.7140   -9.5300   21.6520 C   0  0  0  0  0  0  0  0  0  0  0  0
   -1.4360   -6.6410   18.2670 C   0  0  0  0  0  0  0  0  0  0  0  0
   -4.4950  -11.7800   20.7930 C   0  0  0  0  0  0  0  0  0  0  0  0
   -0.2350   -8.5470   14.7360 C   0  0  0  0  0  0  0  0  0  0  0  0
   -4.6080  -13.3850   15.3820 O   0  0  0  0  0  0  0  0  0  0  0  0
   -1.5360  -10.2090   22.7280 C   0  0  0  0  0  0  0  0  0  0  0  0
   -2.5480  -13.1220   16.4260 F   0  0  0  0  0  0  0  0  0  0  0  0
   -3.5530  -12.5610   15.8030 C   0  0  0  0  0  0  0  0  0  0  0  0
   -0.9290   -8.8240   15.8600 C   0  0  0  0  0  0  0  0  0  0  0  0
   -0.4060   -9.3930   13.6680 C   0  0  0  0  0  0  0  0  0  0  0  0
   -2.3930   -7.8790   18.3620 C   0  0  0  0  0  0  0  0  0  0  0  0
   -1.2560   -8.8230   20.6510 C   0  0  0  0  0  0  0  0  0  0  0  0
   -4.7090  -12.7080   18.3330 C   0  0  0  0  0  0  0  0  0  0  0  0
   -1.7600   -7.4330   20.8270 C   0  0  0  0  0  0  0  0  0  0  0  0
   -0.6900  -10.6590   19.2480 O   0  0  0  0  0  0  0  0  0  0  0  0
   -4.5970  -11.8450   19.4800 C   0  0  0  0  0  0  0  0  0  0  0  0
    0.4470   -9.2090   12.1630 Cl  0  0  0  0  0  0  0  0  0  0  0  0
   -2.0400  -10.6960   14.8550 C   0  0  0  0  0  0  0  0  0  0  0  0
   -2.0060   -9.1020   18.2260 N   0  0  0  0  0  0  0  0  0  0  0  0
   -2.5790   -9.8020   23.2270 O   0  0  0  0  0  0  0  0  0  0  0  0
   -2.3910  -10.0890   17.2780 C   0  0  0  0  0  0  0  0  0  0  0  0
   -3.8910  -10.7720   19.0470 C   0  0  0  0  0  0  0  0  0  0  0  0
   -0.9590  -11.2880   23.2060 O   0  0  0  0  0  0  0  0  0  0  0  0
   -4.3190  -12.3080   22.1050 C   0  0  0  0  0  0  0  0  0  0  0  0
   -1.8240   -9.9020   15.9960 C   0  0  0  0  0  0  0  0  0  0  0  0
   -3.1320  -11.6700   14.8360 N   0  0  0  0  0  0  0  0  0  0  0  0
   -1.0580  -10.4780   13.8340 C   0  0  0  0  0  0  0  0  0  0  0  0
   -4.1090  -12.0830   17.1900 C   0  0  0  0  0  0  0  0  0  0  0  0
   -3.3880  -10.9310   17.6870 C   0  0  0  0  0  0  0  0  0  0  0  0
   -1.2610   -9.4030   19.3590 C   0  0  0  0  0  0  0  0  0  0  0  0
  1  3  1  0
  1 15  1  0
  2  7  1  0
  4 25  1  0
  5 10  1  0
  7 24  2  0
  7 21  1  0
  9  6  1  0
  9  8  1  0
  9 29  1  0
 10 26  2  0
 11 28  1  0
 11  5  2  0
 12  3  1  0
 12  1  1  0
 13 15  1  0
 13  2  1  0
 14 17  1  0
 16 31  2  0
 17  4  1  0
 18 11  1  0
 19 26  1  0
 20 12  1  0
 20 31  1  0
 22 30  2  0
 22 20  1  0
 23 17  1  0
 26 22  1  0
 27 19  2  0
 27  9  1  0
 28 19  1  0
 29 30  1  0
 29 14  1  0
 30 23  1  0
 31 13  1  0
M  END
$$$$

     RDKit          3D

 23 25  0  0  0  0  0  0  0  0999 V2000
   -5.0590  -12.1150   21.3940 C   0  0  0  0  0  0  0  0  0  0  0  0
   -1.5560  -10.2410   13.5960 C   0  0  0  0  0  0  0  0  0  0  0  0
   -4.0020  -11.9340   16.6740 C   0  0  0  0  0  0  0  0  0  0  0  0
   -2.4370   -9.4210   19.4750 N   0  0  0  0  0  0  0  0  0  0  0  0
   -0.8040   -9.1460   15.8460 C   0  0  0  0  0  0  0  0  0  0  0  0
   -0.1610   -8.7200   14.6610 C   0  0  0  0  0  0  0  0  0  0  0  0
   -0.5500   -9.2480   13.4950 C   0  0  0  0  0  0  0  0  0  0  0  0
   -4.3060  -10.8730   19.7950 C   0  0  0  0  0  0  0  0  0  0  0  0
   -2.2050  -10.5100   17.2900 C   0  0  0  0  0  0  0  0  0  0  0  0
   -1.0170   -8.6810   21.9730 O   0  0  0  0  0  0  0  0  0  0  0  0
   -1.5940   -9.6490   22.0360 C   0  0  0  0  0  0  0  0  0  0  0  0
   -5.2400  -11.7310   20.2020 N   0  0  0  0  0  0  0  0  0  0  0  0
   -1.7040  -10.1270   15.9210 C   0  0  0  0  0  0  0  0  0  0  0  0
   -3.3220  -10.7960   21.7700 C   0  0  0  0  0  0  0  0  0  0  0  0
   -0.6040  -10.6940   21.4910 O   0  0  0  0  0  0  0  0  0  0  0  0
   -2.5930  -10.2020   22.6190 O   0  0  0  0  0  0  0  0  0  0  0  0
   -3.2360  -10.2810   20.3480 C   0  0  0  0  0  0  0  0  0  0  0  0
   -2.1100  -10.7080   14.7500 C   0  0  0  0  0  0  0  0  0  0  0  0
   -2.8110  -11.7710   14.6510 O   0  0  0  0  0  0  0  0  0  0  0  0
   -2.2180   -9.5740   18.2510 N   0  0  0  0  0  0  0  0  0  0  0  0
   -2.8360  -11.6190   17.4070 O   0  0  0  0  0  0  0  0  0  0  0  0
   -4.0950  -12.2000   15.2000 C   0  0  0  0  0  0  0  0  0  0  0  0
   -4.1550  -11.7700   22.2300 N   0  0  0  0  0  0  0  0  0  0  0  0
  1 23  4  0
  2 18  4  0
  3 21  1  0
  4 17  1  0
  5 13  4  0
  6  5  4  0
  7  2  4  0
  7  6  4  0
  8 12  4  0
  8 17  4  0
  9 21  1  0
  9 20  1  0
 10 11  1  0
 11 16  1  0
 12  1  4  0
 13  9  1  0
 14 23  4  0
 14 16  1  0
 15 11  2  0
 17 14  4  0
 18 13  4  0
 19 18  1  0
 19 22  1  0
 20  4  1  0
 22  3  1  0
M  END
$$$$

     RDKit          3D

 17 18  0  0  0  0  0  0  0  0999 V2000
   -5.4910  -11.3520   22.6950 O   0  0  0  0  0  0  0  0  0  0  0  0
   -0.6610   -9.1890   15.1110 C   0  0  0  0  0  0  0  0  0  0  0  0
   -4.5080  -11.3920   21.9840 C   0  0  0  0  0  0  0  0  0  0  0  0
   -2.8040  -10.1810   17.9690 C   0  0  0  0  0  0  0  0  0  0  0  0
   -3.7330  -11.2530   18.3480 C   0  0  0  0  0  0  0  0  0  0  0  0
   -3.2220  -12.3220   16.1440 C   0  0  0  0  0  0  0  0  0  0  0  0
   -2.0480  -10.2170   16.7740 C   0  0  0  0  0  0  0  0  0  0  0  0
   -2.3190  -11.2710   15.8050 C   0  0  0  0  0  0  0  0  0  0  0  0
   -0.9090  -10.2160   14.2330 C   0  0  0  0  0  0  0  0  0  0  0  0
    0.2100   -8.1080   14.7800 N   0  0  0  0  0  0  0  0  0  0  0  0
   -4.5280  -11.1620   19.6080 C   0  0  0  0  0  0  0  0  0  0  0  0
   -3.2330  -11.0630   22.4080 O   0  0  0  0  0  0  0  0  0  0  0  0
   -3.9550  -12.3330   17.4000 C   0  0  0  0  0  0  0  0  0  0  0  0
   -4.6450  -12.0350   20.6840 C   0  0  0  0  0  0  0  0  0  0  0  0
   -1.7800  -11.2230   14.5810 N   0  0  0  0  0  0  0  0  0  0  0  0
   -1.0590   -8.1000   17.4460 C   0  0  0  0  0  0  0  0  0  0  0  0
   -1.1700   -9.1930   16.4280 C   0  0  0  0  0  0  0  0  0  0  0  0
  2 17  4  0
  3 12  2  0
  3  1  1  0
  4  5  4  0
  5 11  1  0
  6 13  4  0
  7  4  4  0
  8  6  4  0
  8  7  4  0
  9 15  4  0
  9  2  4  0
 10  2  1  0
 11 14  1  0
 13  5  4  0
 14  3  1  0
 15  8  4  0
 17  7  4  0
 17 16  1  0
M  END
$$$$

     RDKit          3D

 32 34  0  0  0  0  0  0  0  0999 V2000
    3.2300   -5.9850   13.1340 C   0  0  0  0  0  0  0  0  0  0  0  0
   -2.3600  -11.6170   16.0590 C   0  0  0  0  0  0  0  0  0  0  0  0
   -1.1850   -9.3570   15.0660 C   0  0  0  0  0  0  0  0  0  0  0  0
   -1.8160   -9.7060   19.7220 N   0  0  0  0  0  0  0  0  0  0  0  0
   -3.3620  -12.6700   15.8300 C   0  0  0  0  0  0  0  0  0  0  0  0
   -1.4380   -9.5300   21.0160 C   0  0  0  0  0  0  0  0  0  0  0  0
   -2.1470  -11.7220   18.1080 O   0  0  0  0  0  0  0  0  0  0  0  0
    0.2340   -8.7020   22.5350 C   0  0  0  0  0  0  0  0  0  0  0  0
   -1.5690   -9.6300   17.3300 C   0  0  0  0  0  0  0  0  0  0  0  0
   -0.1820   -7.3910   13.7460 C   0  0  0  0  0  0  0  0  0  0  0  0
   -0.2970   -8.7780   14.1380 N   0  0  0  0  0  0  0  0  0  0  0  0
   -4.9840  -11.3980   23.7410 C   0  0  0  0  0  0  0  0  0  0  0  0
   -0.0550   -9.7310   23.3730 C   0  0  0  0  0  0  0  0  0  0  0  0
   -5.5910  -12.2800   22.8410 C   0  0  0  0  0  0  0  0  0  0  0  0
   -4.4500  -13.3280   16.1820 C   0  0  0  0  0  0  0  0  0  0  0  0
   -3.9050  -11.7880   21.2880 C   0  0  0  0  0  0  0  0  0  0  0  0
    1.1510   -7.1990   12.8360 C   0  0  0  0  0  0  0  0  0  0  0  0
   -1.6000   -9.0580   18.5320 C   0  0  0  0  0  0  0  0  0  0  0  0
   -1.8900  -10.3570   22.0110 C   0  0  0  0  0  0  0  0  0  0  0  0
   -0.2200   -9.6620   13.0260 C   0  0  0  0  0  0  0  0  0  0  0  0
   -3.9020  -10.7560   23.3800 N   0  0  0  0  0  0  0  0  0  0  0  0
    2.3240   -6.9650   13.6820 N   0  0  0  0  0  0  0  0  0  0  0  0
   -1.3420   -7.3850   18.3180 S   0  0  0  0  0  0  0  0  0  0  0  0
   -3.2990  -10.9280   22.1700 C   0  0  0  0  0  0  0  0  0  0  0  0
   -2.7130  -12.4260   15.3190 N   0  0  0  0  0  0  0  0  0  0  0  0
   -1.7660  -10.6430   14.6850 C   0  0  0  0  0  0  0  0  0  0  0  0
   -5.0700  -12.4660   21.6180 C   0  0  0  0  0  0  0  0  0  0  0  0
   -2.0420  -10.9630   17.2750 C   0  0  0  0  0  0  0  0  0  0  0  0
   -1.0840  -10.5510   23.1150 N   0  0  0  0  0  0  0  0  0  0  0  0
   -1.0600   -7.6060   16.6910 C   0  0  0  0  0  0  0  0  0  0  0  0
   -0.5180   -8.4710   21.3540 C   0  0  0  0  0  0  0  0  0  0  0  0
   -1.2270   -8.9640   16.3650 C   0  0  0  0  0  0  0  0  0  0  0  0
  1 22  1  0
  2 28  1  0
  3 26  1  0
  3 32  1  0
  4  6  2  3
  5 15  1  0
  6 31  1  0
  6 19  1  0
  8 13  2  0
  9 18  4  0
 10 11  1  0
 11  3  1  0
 14 12  4  0
 16 27  4  0
 16 24  4  0
 17 22  1  0
 17 10  1  0
 18  4  1  0
 19 24  1  0
 19 29  2  0
 20 11  1  0
 21 12  4  0
 23 18  4  0
 24 21  4  0
 25  5  1  0
 25  2  1  0
 27 14  4  0
 28  9  1  0
 28  7  2  0
 29 13  1  0
 30 23  4  0
 31  8  1  0
 32 30  4  0
 32  9  4  0
M  END
$$$$

     RDKit          3D

 11 11  0  0  0  0  0  0  0  0999 V2000
   -2.1610  -10.8240   17.3020 C   0  0  0  0  0  0  0  0  0  0  0  0
   -2.6460  -10.0930   18.3000 C   0  0  0  0  0  0  0  0  0  0  0  0
   -3.5260  -11.7900   14.2690 O   0  0  0  0  0  0  0  0  0  0  0  0
   -0.9330   -9.0480   15.6130 O   0  0  0  0  0  0  0  0  0  0  0  0
   -2.7190  -11.4200   17.8980 C   0  0  0  0  0  0  0  0  0  0  0  0
   -3.4210  -11.9180   15.3380 C   0  0  0  0  0  0  0  0  0  0  0  0
   -2.4360  -10.8630   15.6510 C   0  0  0  0  0  0  0  0  0  0  0  0
   -1.6900   -9.9330   13.6850 N   0  0  0  0  0  0  0  0  0  0  0  0
   -3.5300  -12.5110   17.5980 C   0  0  0  0  0  0  0  0  0  0  0  0
   -3.8310  -12.8530   16.1950 C   0  0  0  0  0  0  0  0  0  0  0  0
   -1.5960   -9.9980   14.9910 C   0  0  0  0  0  0  0  0  0  0  0  0
  1  5  1  0
  1  2  2  0
  3  6  2  0
  6  7  1  0
  6 10  1  0
  7 11  1  0
  7  1  1  0
  8 11  1  0
  9  5  2  0
 10  9  1  0
 11  4  2  0
M  END
$$$$

     RDKit          3D

 20 22  0  0  0  0  0  0  0  0999 V2000
   -1.2210  -10.0200   14.7270 C   0  0  0  0  0  0  0  0  0  0  0  0
   -3.6430  -11.7980   16.9030 C   0  0  0  0  0  0  0  0  0  0  0  0
   -3.2340  -10.6900   20.3390 C   0  0  0  0  0  0  0  0  0  0  0  0
   -4.1590  -11.7270   18.2740 C   0  0  0  0  0  0  0  0  0  0  0  0
   -3.7880  -11.2040   22.6180 C   0  0  0  0  0  0  0  0  0  0  0  0
   -2.6210  -10.8410   16.7950 C   0  0  0  0  0  0  0  0  0  0  0  0
   -0.6980  -10.5140   21.7260 C   0  0  0  0  0  0  0  0  0  0  0  0
   -2.2600  -10.2630   18.1780 C   0  0  0  0  0  0  0  0  0  0  0  0
   -4.3520  -11.1400   21.1700 C   0  0  0  0  0  0  0  0  0  0  0  0
   -1.1970   -9.8490   13.3970 N   0  0  0  0  0  0  0  0  0  0  0  0
   -2.6050  -11.1020   23.1450 C   0  0  0  0  0  0  0  0  0  0  0  0
   -3.7230  -12.3700   15.6020 C   0  0  0  0  0  0  0  0  0  0  0  0
   -1.1710  -10.9410   23.1230 C   0  0  0  0  0  0  0  0  0  0  0  0
    0.3200   -9.4300   22.0640 C   0  0  0  0  0  0  0  0  0  0  0  0
   -3.2870  -10.9100   18.9990 C   0  0  0  0  0  0  0  0  0  0  0  0
   -0.3320   -9.2710   15.6060 C   0  0  0  0  0  0  0  0  0  0  0  0
   -2.8280  -11.9270   14.7440 N   0  0  0  0  0  0  0  0  0  0  0  0
   -1.9320  -10.1530   20.8620 C   0  0  0  0  0  0  0  0  0  0  0  0
   -2.1730  -10.9510   15.2720 N   0  0  0  0  0  0  0  0  0  0  0  0
   -5.4970  -11.2590   20.8570 O   0  0  0  0  0  0  0  0  0  0  0  0
  1 19  1  0
  1 16  1  0
  2  4  1  0
  3 15  1  0
  3 18  1  0
  3  9  1  0
  4 15  1  0
  5 11  1  0
  6  2  4  0
  6  8  1  0
  7 14  1  0
  7 13  1  0
  8 15  2  0
  9  5  1  0
 10  1  1  0
 12  2  4  0
 13 11  1  0
 17 19  4  0
 17 12  4  0
 18  7  1  0
 19  6  4  0
 20  9  2  0
M  END
$$$$

     RDKit          3D

 15 15  0  0  0  0  0  0  0  0999 V2000
   -3.0960   -9.1390   20.4770 C   0  0  0  0  0  0  0  0  0  0  0  0
   -1.9380   -9.9020   16.5100 C   0  0  0  0  0  0  0  0  0  0  0  0
   -1.7430   -8.6090   20.7620 C   0  0  0  0  0  0  0  0  0  0  0  0
   -4.4310  -12.7070   16.0790 N   0  0  0  0  0  0  0  0  0  0  0  0
    0.2310   -9.5540   21.8280 C   0  0  0  0  0  0  0  0  0  0  0  0
   -3.4660  -10.6820   18.3680 C   0  0  0  0  0  0  0  0  0  0  0  0
   -0.6450   -9.6070   20.5790 C   0  0  0  0  0  0  0  0  0  0  0  0
   -3.0680  -11.7990   14.9390 C   0  0  0  0  0  0  0  0  0  0  0  0
   -1.9540  -11.1230   14.4620 N   0  0  0  0  0  0  0  0  0  0  0  0
   -1.5140  -11.0270   21.0140 O   0  0  0  0  0  0  0  0  0  0  0  0
   -1.4360  -10.1830   15.2590 C   0  0  0  0  0  0  0  0  0  0  0  0
   -4.2450  -11.5840   18.5470 O   0  0  0  0  0  0  0  0  0  0  0  0
   -3.0980  -10.6090   16.9700 C   0  0  0  0  0  0  0  0  0  0  0  0
   -3.0080   -9.9920   19.2570 N   0  0  0  0  0  0  0  0  0  0  0  0
   -3.5090  -11.6780   16.1670 C   0  0  0  0  0  0  0  0  0  0  0  0
  1  3  1  0
  2 13  4  0
  4 15  1  0
  6 12  2  0
  6 14  1  0
  7  3  1  0
  7 10  1  0
  7  5  1  0
  8 15  4  0
  9  8  4  0
  9 11  4  0
 11  2  4  0
 13  6  1  0
 14  1  1  0
 15 13  4  0
M  END
$$$$

     RDKit          3D

 18 19  0  0  0  0  0  0  0  0999 V2000
   -1.5430  -10.1360   18.4410 N   0  0  0  0  0  0  0  0  0  0  0  0
   -4.2020  -12.0360   16.1070 C   0  0  0  0  0  0  0  0  0  0  0  0
   -3.0040  -11.5170   14.2370 N   0  0  0  0  0  0  0  0  0  0  0  0
   -0.5490   -9.4280   20.8340 C   0  0  0  0  0  0  0  0  0  0  0  0
   -2.3300  -10.4870   19.5090 C   0  0  0  0  0  0  0  0  0  0  0  0
   -2.2560  -11.0140   21.8870 C   0  0  0  0  0  0  0  0  0  0  0  0
   -1.3540  -11.0540   23.3120 Cl  0  0  0  0  0  0  0  0  0  0  0  0
   -4.0970  -12.1280   14.7960 C   0  0  0  0  0  0  0  0  0  0  0  0
   -3.3320  -11.2350   16.8330 N   0  0  0  0  0  0  0  0  0  0  0  0
   -2.3070  -10.6370   16.2410 C   0  0  0  0  0  0  0  0  0  0  0  0
   -1.4300   -9.9230   17.1020 C   0  0  0  0  0  0  0  0  0  0  0  0
   -3.6230  -11.0990   19.4600 C   0  0  0  0  0  0  0  0  0  0  0  0
   -0.9420   -8.5120   16.9250 C   0  0  0  0  0  0  0  0  0  0  0  0
   -3.4230  -11.6690   21.7840 C   0  0  0  0  0  0  0  0  0  0  0  0
   -1.7180  -10.3620   20.7430 C   0  0  0  0  0  0  0  0  0  0  0  0
   -1.0320  -10.2740   14.2310 N   0  0  0  0  0  0  0  0  0  0  0  0
   -4.1640  -11.6900   20.6450 C   0  0  0  0  0  0  0  0  0  0  0  0
   -2.1000  -10.8160   14.8740 C   0  0  0  0  0  0  0  0  0  0  0  0
  1  5  1  0
  2  9  4  0
  3  8  4  0
  3 18  4  0
  5 15  4  0
  6  7  1  0
  8  2  4  0
 10  9  4  0
 10 11  1  0
 11 13  1  0
 11  1  1  0
 12  5  4  0
 12 17  4  0
 14  6  4  0
 15  4  1  0
 15  6  4  0
 16 18  1  0
 17 14  4  0
 18 10  4  0
M  END
$$$$

     RDKit          3D

 33 36  0  0  0  0  0  0  0  0999 V2000
   -3.2120  -10.2030   17.9070 N   0  0  0  0  0  0  0  0  0  0  0  0
   -3.8700  -11.4810   21.6330 C   0  0  0  0  0  0  0  0  0  0  0  0
   -0.5470   -9.3130   14.1560 C   0  0  0  0  0  0  0  0  0  0  0  0
    1.6980   -5.0870   12.7790 O   0  0  0  0  0  0  0  0  0  0  0  0
    0.2300   -8.9200   21.7990 O   0  0  0  0  0  0  0  0  0  0  0  0
   -2.8220  -10.5850   21.4270 C   0  0  0  0  0  0  0  0  0  0  0  0
    0.0230   -9.4350   12.8640 C   0  0  0  0  0  0  0  0  0  0  0  0
   -0.8190   -8.4430   16.6060 S   0  0  0  0  0  0  0  0  0  0  0  0
   -2.8820  -11.3200   15.7570 N   0  0  0  0  0  0  0  0  0  0  0  0
   -4.4770  -12.0960   20.5620 C   0  0  0  0  0  0  0  0  0  0  0  0
   -1.5700   -9.8410   16.1650 C   0  0  0  0  0  0  0  0  0  0  0  0
   -2.8980   -7.6510   22.3490 N   0  0  0  0  0  0  0  0  0  0  0  0
    0.3910   -7.0860   14.3200 C   0  0  0  0  0  0  0  0  0  0  0  0
   -2.3720  -10.7450   16.8500 C   0  0  0  0  0  0  0  0  0  0  0  0
   -4.0410  -12.1030   15.7290 C   0  0  0  0  0  0  0  0  0  0  0  0
    1.3690   -6.0750   10.9640 N   0  0  0  0  0  0  0  0  0  0  0  0
    0.6810   -8.4130   12.2740 C   0  0  0  0  0  0  0  0  0  0  0  0
   -2.8920   -8.9640   23.0320 C   0  0  0  0  0  0  0  0  0  0  0  0
   -4.4930  -13.1410   15.1520 C   0  0  0  0  0  0  0  0  0  0  0  0
    0.7840   -7.1400   12.9940 C   0  0  0  0  0  0  0  0  0  0  0  0
   -4.2650  -11.7200   19.3000 C   0  0  0  0  0  0  0  0  0  0  0  0
   -1.4390  -10.1360   14.8630 C   0  0  0  0  0  0  0  0  0  0  0  0
    0.1130  -10.8910   23.1100 O   0  0  0  0  0  0  0  0  0  0  0  0
   -3.3060  -10.7600   19.0510 C   0  0  0  0  0  0  0  0  0  0  0  0
   -2.2460  -11.0650   14.7130 N   0  0  0  0  0  0  0  0  0  0  0  0
   -2.0870   -9.8820   22.3900 N   0  0  0  0  0  0  0  0  0  0  0  0
   -3.5490   -9.1830   24.0320 O   0  0  0  0  0  0  0  0  0  0  0  0
   -0.4580   -9.6240   22.8870 S   0  0  0  0  0  0  0  0  0  0  0  0
   -4.3260  -11.8730   23.1330 Cl  0  0  0  0  0  0  0  0  0  0  0  0
   -0.2540   -8.1850   14.9650 C   0  0  0  0  0  0  0  0  0  0  0  0
   -0.4480   -8.9460   24.1360 O   0  0  0  0  0  0  0  0  0  0  0  0
   -2.5300  -10.2750   20.1470 C   0  0  0  0  0  0  0  0  0  0  0  0
    1.3040   -6.0530   12.2650 N   0  0  0  0  0  0  0  0  0  0  0  0
  1 24  1  0
  2 29  1  0
  3 22  1  0
  3 30  4  0
  5 28  1  0
  6  2  4  0
  6 26  1  0
  7  3  4  0
  9 14  1  0
 10  2  4  0
 11 22  1  0
 11  8  1  0
 11 14  1  0
 12 18  1  0
 13 30  4  0
 14  1  1  0
 15  9  1  0
 16 33  1  0
 17  7  4  0
 17 20  4  0
 18 27  2  0
 19 15  2  0
 20 13  4  0
 21 10  4  0
 24 21  4  0
 24 32  4  0
 25 22  2  0
 25  9  1  0
 26 28  1  0
 26 18  1  0
 28 23  1  0
 28 31  1  0
 30  8  1  0
 32  6  4  0
 33  4  1  0
 33 20  1  0
M  END
$$$$

     RDKit          3D

 21 21  0  0  0  0  0  0  0  0999 V2000
   -3.3710  -10.8530   19.1950 C   0  0  0  0  0  0  0  0  0  0  0  0
   -1.8280  -10.3010   21.3210 C   0  0  0  0  0  0  0  0  0  0  0  0
   -4.4170  -12.2430   17.6540 O   0  0  0  0  0  0  0  0  0  0  0  0
   -3.5220  -12.0810   14.8210 O   0  0  0  0  0  0  0  0  0  0  0  0
   -0.3730   -8.9740   13.6260 C   0  0  0  0  0  0  0  0  0  0  0  0
    0.1110  -10.5340   23.0290 O   0  0  0  0  0  0  0  0  0  0  0  0
   -1.6430  -11.3240   14.5670 O   0  0  0  0  0  0  0  0  0  0  0  0
   -3.2530  -11.4900   17.9210 C   0  0  0  0  0  0  0  0  0  0  0  0
   -2.2490   -9.9250   22.8020 C   0  0  0  0  0  0  0  0  0  0  0  0
    1.0800   -9.0540   11.5080 C   0  0  0  0  0  0  0  0  0  0  0  0
   -2.7840  -11.4040   15.4330 C   0  0  0  0  0  0  0  0  0  0  0  0
   -0.2380   -8.9390   12.2990 N   0  0  0  0  0  0  0  0  0  0  0  0
   -0.9010   -9.7460   20.5980 O   0  0  0  0  0  0  0  0  0  0  0  0
   -4.0820  -11.5990   21.5210 S   0  0  0  0  0  0  0  0  0  0  0  0
   -2.9050  -10.7640   16.7010 C   0  0  0  0  0  0  0  0  0  0  0  0
   -1.3920   -9.8580   14.0370 N   0  0  0  0  0  0  0  0  0  0  0  0
   -2.6420  -11.2930   20.4720 C   0  0  0  0  0  0  0  0  0  0  0  0
   -0.8350   -9.6430   23.2690 C   0  0  0  0  0  0  0  0  0  0  0  0
    0.2680   -8.1540   14.2690 O   0  0  0  0  0  0  0  0  0  0  0  0
   -0.5170   -8.5360   23.7710 O   0  0  0  0  0  0  0  0  0  0  0  0
   -4.6750  -11.3920   19.8030 C   0  0  0  0  0  0  0  0  0  0  0  0
  1  8  1  0
  1 21  1  0
  1 17  1  0
  2 13  1  0
  2  9  1  0
  4 11  2  0
  5 16  1  0
  5 19  2  0
  6 18  2  0
  7 11  1  0
  8  3  1  0
  9 18  1  0
 10 12  1  0
 11 15  1  0
 12  5  1  0
 15  8  1  0
 16  7  1  0
 17  2  1  0
 17 14  1  0
 18 20  1  0
 21 14  1  0
M  END
$$$$

     RDKit          3D

 20 21  0  0  0  0  0  0  0  0999 V2000
   -2.5670  -10.6230   16.4990 N   0  0  0  0  0  0  0  0  0  0  0  0
   -4.2510  -12.4090   16.8880 C   0  0  0  0  0  0  0  0  0  0  0  0
   -3.6950  -12.3010   15.6340 C   0  0  0  0  0  0  0  0  0  0  0  0
   -1.5040   -8.8590   17.6690 C   0  0  0  0  0  0  0  0  0  0  0  0
   -3.8770  -10.0460   23.8560 N   0  0  0  0  0  0  0  0  0  0  0  0
   -4.6660  -12.2910   23.7460 C   0  0  0  0  0  0  0  0  0  0  0  0
   -3.5970  -10.5400   20.5440 C   0  0  0  0  0  0  0  0  0  0  0  0
   -4.5690  -11.4940   19.5270 S   0  0  0  0  0  0  0  0  0  0  0  0
   -3.0650  -10.7790   17.7100 N   0  0  0  0  0  0  0  0  0  0  0  0
   -2.8230  -11.3290   15.4730 C   0  0  0  0  0  0  0  0  0  0  0  0
   -0.9420   -9.2850   15.4670 C   0  0  0  0  0  0  0  0  0  0  0  0
   -1.8050  -11.1220   22.2050 C   0  0  0  0  0  0  0  0  0  0  0  0
   -3.2770  -11.2870   21.8440 C   0  0  0  0  0  0  0  0  0  0  0  0
   -3.2240   -9.4350   20.2710 O   0  0  0  0  0  0  0  0  0  0  0  0
   -1.7600   -9.6240   16.4890 C   0  0  0  0  0  0  0  0  0  0  0  0
   -1.2030  -10.0400   14.3080 C   0  0  0  0  0  0  0  0  0  0  0  0
   -0.0010   -8.1850   16.1740 C   0  0  0  0  0  0  0  0  0  0  0  0
   -3.9410  -11.6230   17.8840 C   0  0  0  0  0  0  0  0  0  0  0  0
   -4.2920  -11.0220   22.9180 C   0  0  0  0  0  0  0  0  0  0  0  0
   -2.1290  -11.0480   14.3120 N   0  0  0  0  0  0  0  0  0  0  0  0
  1  9  1  0
  2 18  1  0
  3  2  2  0
  7 13  1  0
  8  7  1  0
  9 18  2  0
 10  3  1  0
 10  1  1  0
 11 17  1  0
 11 15  2  0
 13 12  1  0
 13 19  1  0
 14  7  2  0
 15  1  1  0
 15  4  1  0
 16 20  1  0
 16 11  1  0
 18  8  1  0
 19  6  1  0
 19  5  1  0
 20 10  2  0
M  END
$$$$

     RDKit          3D

 31 34  0  0  0  0  0  0  0  0999 V2000
   -0.8180   -8.2750   16.0600 N   0  0  0  0  0  0  0  0  0  0  0  0
   -3.5720  -11.2980   20.1000 C   0  0  0  0  0  0  0  0  0  0  0  0
   -0.4390  -11.4410   22.1640 O   0  0  0  0  0  0  0  0  0  0  0  0
   -0.7880   -8.9970   14.9400 C   0  0  0  0  0  0  0  0  0  0  0  0
   -2.5720  -11.3430   19.0920 C   0  0  0  0  0  0  0  0  0  0  0  0
   -1.6720  -10.0570   14.5690 C   0  0  0  0  0  0  0  0  0  0  0  0
   -3.3170  -11.0290   21.4280 C   0  0  0  0  0  0  0  0  0  0  0  0
   -4.1360  -11.6070   23.4190 C   0  0  0  0  0  0  0  0  0  0  0  0
    0.0510  -10.3130   22.6670 C   0  0  0  0  0  0  0  0  0  0  0  0
   -5.3820  -11.9940   21.3550 N   0  0  0  0  0  0  0  0  0  0  0  0
   -3.9480   -9.2460   23.9770 O   0  0  0  0  0  0  0  0  0  0  0  0
   -2.1030   -9.8610   17.3100 C   0  0  0  0  0  0  0  0  0  0  0  0
    2.9740   -6.0830   13.1880 O   0  0  0  0  0  0  0  0  0  0  0  0
   -3.1230  -11.6720   17.8300 C   0  0  0  0  0  0  0  0  0  0  0  0
   -2.5810  -10.8530   15.3430 C   0  0  0  0  0  0  0  0  0  0  0  0
   -4.5670  -11.3500   22.2300 C   0  0  0  0  0  0  0  0  0  0  0  0
   -4.2970  -12.1110   17.0680 C   0  0  0  0  0  0  0  0  0  0  0  0
    1.5320   -5.4030   11.6770 O   0  0  0  0  0  0  0  0  0  0  0  0
   -4.0520  -12.6420   15.5540 C   0  0  0  0  0  0  0  0  0  0  0  0
   -2.3900  -10.5070   22.3070 N   0  0  0  0  0  0  0  0  0  0  0  0
   -1.4660   -8.6800   17.1130 C   0  0  0  0  0  0  0  0  0  0  0  0
   -3.1940  -10.4380   23.6560 C   0  0  0  0  0  0  0  0  0  0  0  0
   -0.1250   -8.5680   13.7920 N   0  0  0  0  0  0  0  0  0  0  0  0
   -1.3250   -9.5590   22.3630 C   0  0  0  0  0  0  0  0  0  0  0  0
   -3.2590  -11.9210   14.8270 O   0  0  0  0  0  0  0  0  0  0  0  0
   -4.8010  -11.7090   24.6710 O   0  0  0  0  0  0  0  0  0  0  0  0
   -4.9010  -11.8050   20.0860 C   0  0  0  0  0  0  0  0  0  0  0  0
   -2.4910  -10.8690   16.6190 C   0  0  0  0  0  0  0  0  0  0  0  0
    1.8820   -6.3340   12.5450 C   0  0  0  0  0  0  0  0  0  0  0  0
    1.1600   -7.3430   12.6020 O   0  0  0  0  0  0  0  0  0  0  0  0
    0.8780   -7.4910   13.9270 C   0  0  0  0  0  0  0  0  0  0  0  0
  1 21  1  0
  2  5  1  0
  2  7  1  0
  3  9  1  0
  4  1  2  0
  6  4  1  0
  7 16  1  0
  7 20  1  0
  8 22  1  0
  8 26  1  0
 14  5  1  0
 15  6  1  0
 15 28  1  0
 16 10  1  0
 16  8  1  0
 17 14  1  0
 18 29  2  0
 19 17  2  0
 20 24  1  0
 20 22  1  0
 21 12  2  0
 22 11  1  0
 23 31  1  0
 23  4  1  0
 24  9  1  0
 25 15  1  0
 25 19  1  0
 27  2  1  0
 27 10  1  0
 28 12  1  0
 28 14  2  0
 29 30  1  0
 29 13  1  0
 30 31  1  0
M  END
$$$$
